[*]CC(F)(F)F.[*]Cc1cn[nH]c1.COc1cc2c(cc(C#N)n2Cc2cn[nH]c2)c(C)c1C[NH+]1CCC(Nc2ncnc3sc(CC(F)(F)F)cc23)CC1
     RDKit          3D

 11  0  0  0  0  0  0  0  0  0999 V2000
   17.1860    8.2480   13.5880 R   0  0  0  0  0 15  0  0  0  0  0  0
   11.0400   21.9480   13.8920 R   0  0  0  0  0 15  0  0  0  0  0  0
   12.7980   11.2840   11.9600 O   0  0  0  0  0  0  0  0  0  0  0  0
   11.3770   15.0700   10.9100 O   0  0  0  0  0  0  0  0  0  0  0  0
   12.6900   17.8110   10.7360 N   0  0  0  0  0  0  0  0  0  0  0  0
   11.3660    9.4530   11.7800 N   0  0  0  0  0  0  0  0  0  0  0  0
   12.0630    7.2540   12.3890 N   0  0  0  0  0  0  0  0  0  0  0  0
   14.4358    8.2250   12.8972 C   0  0  0  0  0  0  0  0  0  0  0  0
    9.3590   20.0004   13.2874 C   0  0  0  0  0  0  0  0  0  0  0  0
   12.3378    8.5790   12.2342 C   0  0  0  0  0  0  0  0  0  0  0  0
   10.4103   18.5967   12.0673 C   0  0  0  0  0  0  0  0  0  0  0  0
M  END
$$$$
