[*]c1cc2c(NC3CC[NH+](Cc4c(OC)cc5c(cc(C#N)n5[*])c4C)CC3)ncnc2s1.COc1cc2c(cc(C#N)n2Cc2cn[nH]c2)c(C)c1C[NH+]1CCC(Nc2ncnc3sc(CC(F)(F)F)cc23)CC1
     RDKit          3D

 13 12  0  0  0  0  0  0  0  0999 V2000
   17.1860    8.2480   13.5880 C   0  0  0  0  0  0  0  0  0  0  0  0
   17.9960    7.8000   12.3360 C   0  0  0  0  0  0  0  0  0  0  0  0
   19.2530    7.7520   12.5990 F   0  0  0  0  0  0  0  0  0  0  0  0
   17.6360    6.5090   11.9820 F   0  0  0  0  0  0  0  0  0  0  0  0
   17.7770    8.4870   11.2680 F   0  0  0  0  0  0  0  0  0  0  0  0
   11.0400   21.9480   13.8920 C   0  0  0  0  0  0  0  0  0  0  0  0
   10.8850   23.0800   12.8980 C   0  0  0  0  0  0  0  0  0  0  0  0
   11.8580   23.7500   12.3040 C   0  0  0  0  0  0  0  0  0  0  0  0
   11.2880   24.6880   11.5160 N   0  0  0  0  0  0  0  0  0  0  0  0
   10.0740   24.6180   11.6060 N   0  0  0  0  0  0  0  0  0  0  0  0
    9.7670   23.6400   12.4850 C   0  0  0  0  0  0  0  0  0  0  0  0
   15.6750    8.2140   13.2340 R   0  0  0  0  0  1  0  0  0  0  0  0
   10.0870   20.8780   13.5700 R   0  0  0  0  0  1  0  0  0  0  0  0
 12  1  1  0
  1  2  1  0
  2  3  1  0
  2  4  1  0
  2  5  1  0
 13  6  1  0
  6  7  1  0
  7  8  1  0
  8  9  2  0
  9 10  1  0
 10 11  1  0
 11  7  2  0
M  END
$$$$
